
---------- Begin Simulation Statistics ----------
simSeconds                                   0.003170                       # Number of seconds simulated (Second)
simTicks                                   3170384000                       # Number of ticks simulated (Tick)
finalTick                                  3170384000                       # Number of ticks from beginning of simulation (restored from checkpoints and never reset) (Tick)
simFreq                                  1000000000000                       # The number of ticks per simulated second ((Tick/Second))
hostSeconds                                      0.68                       # Real time elapsed on the host (Second)
hostTickRate                               4631306469                       # The number of ticks simulated per host second (ticks/s) ((Tick/Second))
hostMemory                                    2277224                       # Number of bytes of host memory used (Byte)
simInsts                                       867249                       # Number of instructions simulated (Count)
simOps                                        1521474                       # Number of ops (including micro ops) simulated (Count)
hostInstRate                                  1266614                       # Simulator instruction rate (inst/s) ((Count/Second))
hostOpRate                                    2222074                       # Simulator op (including micro ops) rate (op/s) ((Count/Second))
system.clk_domain.clock                          1000                       # Clock period in ticks (Tick)
system.clk_domain.voltage_domain.voltage            1                       # Voltage in Volts (Volt)
system.cpu.numCycles                          3170384                       # Number of cpu cycles simulated (Cycle)
system.cpu.cpi                               3.655376                       # CPI: cycles per instruction (core level) ((Cycle/Count))
system.cpu.ipc                               0.273570                       # IPC: instructions per cycle (core level) ((Count/Cycle))
system.cpu.numWorkItemsStarted                      0                       # Number of work items this cpu started (Count)
system.cpu.numWorkItemsCompleted                    0                       # Number of work items this cpu completed (Count)
system.cpu.commitStats0.numInsts               867321                       # Number of instructions committed (thread level) (Count)
system.cpu.commitStats0.numOps                1521584                       # Number of ops (including micro ops) committed (thread level) (Count)
system.cpu.commitStats0.numInstsNotNOP              0                       # Number of instructions committed excluding NOPs or prefetches (Count)
system.cpu.commitStats0.numOpsNotNOP                0                       # Number of Ops (including micro ops) Simulated (Count)
system.cpu.commitStats0.cpi                  3.655376                       # CPI: cycles per instruction (thread level) ((Cycle/Count))
system.cpu.commitStats0.ipc                  0.273570                       # IPC: instructions per cycle (thread level) ((Count/Cycle))
system.cpu.commitStats0.numMemRefs                  0                       # Number of memory references committed (Count)
system.cpu.commitStats0.numFpInsts              86230                       # Number of float instructions (Count)
system.cpu.commitStats0.numIntInsts           1448112                       # Number of integer instructions (Count)
system.cpu.commitStats0.numLoadInsts           239658                       # Number of load instructions (Count)
system.cpu.commitStats0.numStoreInsts          115797                       # Number of store instructions (Count)
system.cpu.commitStats0.numVecInsts                 0                       # Number of vector instructions (Count)
system.cpu.commitStats0.committedInstType::No_OpClass        15502      1.02%      1.02% # Class of committed instruction. (Count)
system.cpu.commitStats0.committedInstType::IntAlu      1087798     71.49%     72.51% # Class of committed instruction. (Count)
system.cpu.commitStats0.committedInstType::IntMult          985      0.06%     72.57% # Class of committed instruction. (Count)
system.cpu.commitStats0.committedInstType::IntDiv         6275      0.41%     72.99% # Class of committed instruction. (Count)
system.cpu.commitStats0.committedInstType::FloatAdd        26797      1.76%     74.75% # Class of committed instruction. (Count)
system.cpu.commitStats0.committedInstType::FloatCmp            0      0.00%     74.75% # Class of committed instruction. (Count)
system.cpu.commitStats0.committedInstType::FloatCvt           32      0.00%     74.75% # Class of committed instruction. (Count)
system.cpu.commitStats0.committedInstType::FloatMult            0      0.00%     74.75% # Class of committed instruction. (Count)
system.cpu.commitStats0.committedInstType::FloatMultAcc            0      0.00%     74.75% # Class of committed instruction. (Count)
system.cpu.commitStats0.committedInstType::FloatDiv            0      0.00%     74.75% # Class of committed instruction. (Count)
system.cpu.commitStats0.committedInstType::FloatMisc            0      0.00%     74.75% # Class of committed instruction. (Count)
system.cpu.commitStats0.committedInstType::FloatSqrt            0      0.00%     74.75% # Class of committed instruction. (Count)
system.cpu.commitStats0.committedInstType::SimdAdd          350      0.02%     74.77% # Class of committed instruction. (Count)
system.cpu.commitStats0.committedInstType::SimdAddAcc            0      0.00%     74.77% # Class of committed instruction. (Count)
system.cpu.commitStats0.committedInstType::SimdAlu         7461      0.49%     75.26% # Class of committed instruction. (Count)
system.cpu.commitStats0.committedInstType::SimdCmp            6      0.00%     75.26% # Class of committed instruction. (Count)
system.cpu.commitStats0.committedInstType::SimdCvt         3402      0.22%     75.49% # Class of committed instruction. (Count)
system.cpu.commitStats0.committedInstType::SimdMisc         7887      0.52%     76.01% # Class of committed instruction. (Count)
system.cpu.commitStats0.committedInstType::SimdMult            0      0.00%     76.01% # Class of committed instruction. (Count)
system.cpu.commitStats0.committedInstType::SimdMultAcc            0      0.00%     76.01% # Class of committed instruction. (Count)
system.cpu.commitStats0.committedInstType::SimdMatMultAcc            0      0.00%     76.01% # Class of committed instruction. (Count)
system.cpu.commitStats0.committedInstType::SimdShift          162      0.01%     76.02% # Class of committed instruction. (Count)
system.cpu.commitStats0.committedInstType::SimdShiftAcc            0      0.00%     76.02% # Class of committed instruction. (Count)
system.cpu.commitStats0.committedInstType::SimdDiv            0      0.00%     76.02% # Class of committed instruction. (Count)
system.cpu.commitStats0.committedInstType::SimdSqrt            0      0.00%     76.02% # Class of committed instruction. (Count)
system.cpu.commitStats0.committedInstType::SimdFloatAdd         4096      0.27%     76.29% # Class of committed instruction. (Count)
system.cpu.commitStats0.committedInstType::SimdFloatAlu            0      0.00%     76.29% # Class of committed instruction. (Count)
system.cpu.commitStats0.committedInstType::SimdFloatCmp            0      0.00%     76.29% # Class of committed instruction. (Count)
system.cpu.commitStats0.committedInstType::SimdFloatCvt         1280      0.08%     76.37% # Class of committed instruction. (Count)
system.cpu.commitStats0.committedInstType::SimdFloatDiv            0      0.00%     76.37% # Class of committed instruction. (Count)
system.cpu.commitStats0.committedInstType::SimdFloatMisc            0      0.00%     76.37% # Class of committed instruction. (Count)
system.cpu.commitStats0.committedInstType::SimdFloatMult         4096      0.27%     76.64% # Class of committed instruction. (Count)
system.cpu.commitStats0.committedInstType::SimdFloatMultAcc            0      0.00%     76.64% # Class of committed instruction. (Count)
system.cpu.commitStats0.committedInstType::SimdFloatMatMultAcc            0      0.00%     76.64% # Class of committed instruction. (Count)
system.cpu.commitStats0.committedInstType::SimdFloatSqrt            0      0.00%     76.64% # Class of committed instruction. (Count)
system.cpu.commitStats0.committedInstType::SimdReduceAdd            0      0.00%     76.64% # Class of committed instruction. (Count)
system.cpu.commitStats0.committedInstType::SimdReduceAlu            0      0.00%     76.64% # Class of committed instruction. (Count)
system.cpu.commitStats0.committedInstType::SimdReduceCmp            0      0.00%     76.64% # Class of committed instruction. (Count)
system.cpu.commitStats0.committedInstType::SimdFloatReduceAdd            0      0.00%     76.64% # Class of committed instruction. (Count)
system.cpu.commitStats0.committedInstType::SimdFloatReduceCmp            0      0.00%     76.64% # Class of committed instruction. (Count)
system.cpu.commitStats0.committedInstType::SimdAes            0      0.00%     76.64% # Class of committed instruction. (Count)
system.cpu.commitStats0.committedInstType::SimdAesMix            0      0.00%     76.64% # Class of committed instruction. (Count)
system.cpu.commitStats0.committedInstType::SimdSha1Hash            0      0.00%     76.64% # Class of committed instruction. (Count)
system.cpu.commitStats0.committedInstType::SimdSha1Hash2            0      0.00%     76.64% # Class of committed instruction. (Count)
system.cpu.commitStats0.committedInstType::SimdSha256Hash            0      0.00%     76.64% # Class of committed instruction. (Count)
system.cpu.commitStats0.committedInstType::SimdSha256Hash2            0      0.00%     76.64% # Class of committed instruction. (Count)
system.cpu.commitStats0.committedInstType::SimdShaSigma2            0      0.00%     76.64% # Class of committed instruction. (Count)
system.cpu.commitStats0.committedInstType::SimdShaSigma3            0      0.00%     76.64% # Class of committed instruction. (Count)
system.cpu.commitStats0.committedInstType::SimdPredAlu            0      0.00%     76.64% # Class of committed instruction. (Count)
system.cpu.commitStats0.committedInstType::Matrix            0      0.00%     76.64% # Class of committed instruction. (Count)
system.cpu.commitStats0.committedInstType::MatrixMov            0      0.00%     76.64% # Class of committed instruction. (Count)
system.cpu.commitStats0.committedInstType::MatrixOP            0      0.00%     76.64% # Class of committed instruction. (Count)
system.cpu.commitStats0.committedInstType::MemRead       222794     14.64%     91.28% # Class of committed instruction. (Count)
system.cpu.commitStats0.committedInstType::MemWrite       104392      6.86%     98.14% # Class of committed instruction. (Count)
system.cpu.commitStats0.committedInstType::FloatMemRead        16864      1.11%     99.25% # Class of committed instruction. (Count)
system.cpu.commitStats0.committedInstType::FloatMemWrite        11405      0.75%    100.00% # Class of committed instruction. (Count)
system.cpu.commitStats0.committedInstType::IprAccess            0      0.00%    100.00% # Class of committed instruction. (Count)
system.cpu.commitStats0.committedInstType::InstPrefetch            0      0.00%    100.00% # Class of committed instruction. (Count)
system.cpu.commitStats0.committedInstType::VectorUnitStrideLoad            0      0.00%    100.00% # Class of committed instruction. (Count)
system.cpu.commitStats0.committedInstType::VectorUnitStrideStore            0      0.00%    100.00% # Class of committed instruction. (Count)
system.cpu.commitStats0.committedInstType::VectorUnitStrideMaskLoad            0      0.00%    100.00% # Class of committed instruction. (Count)
system.cpu.commitStats0.committedInstType::VectorUnitStrideMaskStore            0      0.00%    100.00% # Class of committed instruction. (Count)
system.cpu.commitStats0.committedInstType::VectorStridedLoad            0      0.00%    100.00% # Class of committed instruction. (Count)
system.cpu.commitStats0.committedInstType::VectorStridedStore            0      0.00%    100.00% # Class of committed instruction. (Count)
system.cpu.commitStats0.committedInstType::VectorIndexedLoad            0      0.00%    100.00% # Class of committed instruction. (Count)
system.cpu.commitStats0.committedInstType::VectorIndexedStore            0      0.00%    100.00% # Class of committed instruction. (Count)
system.cpu.commitStats0.committedInstType::VectorUnitStrideFaultOnlyFirstLoad            0      0.00%    100.00% # Class of committed instruction. (Count)
system.cpu.commitStats0.committedInstType::VectorWholeRegisterLoad            0      0.00%    100.00% # Class of committed instruction. (Count)
system.cpu.commitStats0.committedInstType::VectorWholeRegisterStore            0      0.00%    100.00% # Class of committed instruction. (Count)
system.cpu.commitStats0.committedInstType::VectorIntegerArith            0      0.00%    100.00% # Class of committed instruction. (Count)
system.cpu.commitStats0.committedInstType::VectorFloatArith            0      0.00%    100.00% # Class of committed instruction. (Count)
system.cpu.commitStats0.committedInstType::VectorFloatConvert            0      0.00%    100.00% # Class of committed instruction. (Count)
system.cpu.commitStats0.committedInstType::VectorIntegerReduce            0      0.00%    100.00% # Class of committed instruction. (Count)
system.cpu.commitStats0.committedInstType::VectorFloatReduce            0      0.00%    100.00% # Class of committed instruction. (Count)
system.cpu.commitStats0.committedInstType::VectorMisc            0      0.00%    100.00% # Class of committed instruction. (Count)
system.cpu.commitStats0.committedInstType::VectorIntegerExtension            0      0.00%    100.00% # Class of committed instruction. (Count)
system.cpu.commitStats0.committedInstType::VectorConfig            0      0.00%    100.00% # Class of committed instruction. (Count)
system.cpu.commitStats0.committedInstType::total      1521584                       # Class of committed instruction. (Count)
system.cpu.commitStats0.committedControl::IsControl       138134                       # Class of control type instructions committed (Count)
system.cpu.commitStats0.committedControl::IsDirectControl       122919                       # Class of control type instructions committed (Count)
system.cpu.commitStats0.committedControl::IsIndirectControl        15194                       # Class of control type instructions committed (Count)
system.cpu.commitStats0.committedControl::IsCondControl       103490                       # Class of control type instructions committed (Count)
system.cpu.commitStats0.committedControl::IsUncondControl        34623                       # Class of control type instructions committed (Count)
system.cpu.commitStats0.committedControl::IsCall        10541                       # Class of control type instructions committed (Count)
system.cpu.commitStats0.committedControl::IsReturn        10536                       # Class of control type instructions committed (Count)
system.cpu.dcache.demandHits::cpu.data         352388                       # number of demand (read+write) hits (Count)
system.cpu.dcache.demandHits::total            352388                       # number of demand (read+write) hits (Count)
system.cpu.dcache.overallHits::cpu.data        352388                       # number of overall hits (Count)
system.cpu.dcache.overallHits::total           352388                       # number of overall hits (Count)
system.cpu.dcache.demandMisses::cpu.data         1878                       # number of demand (read+write) misses (Count)
system.cpu.dcache.demandMisses::total            1878                       # number of demand (read+write) misses (Count)
system.cpu.dcache.overallMisses::cpu.data         1878                       # number of overall misses (Count)
system.cpu.dcache.overallMisses::total           1878                       # number of overall misses (Count)
system.cpu.dcache.demandMissLatency::cpu.data    107903000                       # number of demand (read+write) miss ticks (Tick)
system.cpu.dcache.demandMissLatency::total    107903000                       # number of demand (read+write) miss ticks (Tick)
system.cpu.dcache.overallMissLatency::cpu.data    107903000                       # number of overall miss ticks (Tick)
system.cpu.dcache.overallMissLatency::total    107903000                       # number of overall miss ticks (Tick)
system.cpu.dcache.demandAccesses::cpu.data       354266                       # number of demand (read+write) accesses (Count)
system.cpu.dcache.demandAccesses::total        354266                       # number of demand (read+write) accesses (Count)
system.cpu.dcache.overallAccesses::cpu.data       354266                       # number of overall (read+write) accesses (Count)
system.cpu.dcache.overallAccesses::total       354266                       # number of overall (read+write) accesses (Count)
system.cpu.dcache.demandMissRate::cpu.data     0.005301                       # miss rate for demand accesses (Ratio)
system.cpu.dcache.demandMissRate::total      0.005301                       # miss rate for demand accesses (Ratio)
system.cpu.dcache.overallMissRate::cpu.data     0.005301                       # miss rate for overall accesses (Ratio)
system.cpu.dcache.overallMissRate::total     0.005301                       # miss rate for overall accesses (Ratio)
system.cpu.dcache.demandAvgMissLatency::cpu.data 57456.336528                       # average overall miss latency in ticks ((Tick/Count))
system.cpu.dcache.demandAvgMissLatency::total 57456.336528                       # average overall miss latency in ticks ((Tick/Count))
system.cpu.dcache.overallAvgMissLatency::cpu.data 57456.336528                       # average overall miss latency ((Tick/Count))
system.cpu.dcache.overallAvgMissLatency::total 57456.336528                       # average overall miss latency ((Tick/Count))
system.cpu.dcache.blockedCycles::no_mshrs            0                       # number of cycles access was blocked (Cycle)
system.cpu.dcache.blockedCycles::no_targets            0                       # number of cycles access was blocked (Cycle)
system.cpu.dcache.blockedCauses::no_mshrs            0                       # number of times access was blocked (Count)
system.cpu.dcache.blockedCauses::no_targets            0                       # number of times access was blocked (Count)
system.cpu.dcache.avgBlocked::no_mshrs            nan                       # average number of cycles each access was blocked ((Cycle/Count))
system.cpu.dcache.avgBlocked::no_targets          nan                       # average number of cycles each access was blocked ((Cycle/Count))
system.cpu.dcache.writebacks::writebacks           16                       # number of writebacks (Count)
system.cpu.dcache.writebacks::total                16                       # number of writebacks (Count)
system.cpu.dcache.demandMshrMisses::cpu.data         1878                       # number of demand (read+write) MSHR misses (Count)
system.cpu.dcache.demandMshrMisses::total         1878                       # number of demand (read+write) MSHR misses (Count)
system.cpu.dcache.overallMshrMisses::cpu.data         1878                       # number of overall MSHR misses (Count)
system.cpu.dcache.overallMshrMisses::total         1878                       # number of overall MSHR misses (Count)
system.cpu.dcache.demandMshrMissLatency::cpu.data    104147000                       # number of demand (read+write) MSHR miss ticks (Tick)
system.cpu.dcache.demandMshrMissLatency::total    104147000                       # number of demand (read+write) MSHR miss ticks (Tick)
system.cpu.dcache.overallMshrMissLatency::cpu.data    104147000                       # number of overall MSHR miss ticks (Tick)
system.cpu.dcache.overallMshrMissLatency::total    104147000                       # number of overall MSHR miss ticks (Tick)
system.cpu.dcache.demandMshrMissRate::cpu.data     0.005301                       # mshr miss ratio for demand accesses (Ratio)
system.cpu.dcache.demandMshrMissRate::total     0.005301                       # mshr miss ratio for demand accesses (Ratio)
system.cpu.dcache.overallMshrMissRate::cpu.data     0.005301                       # mshr miss ratio for overall accesses (Ratio)
system.cpu.dcache.overallMshrMissRate::total     0.005301                       # mshr miss ratio for overall accesses (Ratio)
system.cpu.dcache.demandAvgMshrMissLatency::cpu.data 55456.336528                       # average overall mshr miss latency ((Tick/Count))
system.cpu.dcache.demandAvgMshrMissLatency::total 55456.336528                       # average overall mshr miss latency ((Tick/Count))
system.cpu.dcache.overallAvgMshrMissLatency::cpu.data 55456.336528                       # average overall mshr miss latency ((Tick/Count))
system.cpu.dcache.overallAvgMshrMissLatency::total 55456.336528                       # average overall mshr miss latency ((Tick/Count))
system.cpu.dcache.replacements                     55                       # number of replacements (Count)
system.cpu.dcache.LockedRMWReadReq.hits::cpu.data          563                       # number of LockedRMWReadReq hits (Count)
system.cpu.dcache.LockedRMWReadReq.hits::total          563                       # number of LockedRMWReadReq hits (Count)
system.cpu.dcache.LockedRMWReadReq.misses::cpu.data            1                       # number of LockedRMWReadReq misses (Count)
system.cpu.dcache.LockedRMWReadReq.misses::total            1                       # number of LockedRMWReadReq misses (Count)
system.cpu.dcache.LockedRMWReadReq.missLatency::cpu.data        77000                       # number of LockedRMWReadReq miss ticks (Tick)
system.cpu.dcache.LockedRMWReadReq.missLatency::total        77000                       # number of LockedRMWReadReq miss ticks (Tick)
system.cpu.dcache.LockedRMWReadReq.accesses::cpu.data          564                       # number of LockedRMWReadReq accesses(hits+misses) (Count)
system.cpu.dcache.LockedRMWReadReq.accesses::total          564                       # number of LockedRMWReadReq accesses(hits+misses) (Count)
system.cpu.dcache.LockedRMWReadReq.missRate::cpu.data     0.001773                       # miss rate for LockedRMWReadReq accesses (Ratio)
system.cpu.dcache.LockedRMWReadReq.missRate::total     0.001773                       # miss rate for LockedRMWReadReq accesses (Ratio)
system.cpu.dcache.LockedRMWReadReq.avgMissLatency::cpu.data        77000                       # average LockedRMWReadReq miss latency ((Tick/Count))
system.cpu.dcache.LockedRMWReadReq.avgMissLatency::total        77000                       # average LockedRMWReadReq miss latency ((Tick/Count))
system.cpu.dcache.LockedRMWReadReq.mshrMisses::cpu.data            1                       # number of LockedRMWReadReq MSHR misses (Count)
system.cpu.dcache.LockedRMWReadReq.mshrMisses::total            1                       # number of LockedRMWReadReq MSHR misses (Count)
system.cpu.dcache.LockedRMWReadReq.mshrMissLatency::cpu.data      1278000                       # number of LockedRMWReadReq MSHR miss ticks (Tick)
system.cpu.dcache.LockedRMWReadReq.mshrMissLatency::total      1278000                       # number of LockedRMWReadReq MSHR miss ticks (Tick)
system.cpu.dcache.LockedRMWReadReq.mshrMissRate::cpu.data     0.001773                       # mshr miss rate for LockedRMWReadReq accesses (Ratio)
system.cpu.dcache.LockedRMWReadReq.mshrMissRate::total     0.001773                       # mshr miss rate for LockedRMWReadReq accesses (Ratio)
system.cpu.dcache.LockedRMWReadReq.avgMshrMissLatency::cpu.data      1278000                       # average LockedRMWReadReq mshr miss latency ((Tick/Count))
system.cpu.dcache.LockedRMWReadReq.avgMshrMissLatency::total      1278000                       # average LockedRMWReadReq mshr miss latency ((Tick/Count))
system.cpu.dcache.LockedRMWWriteReq.hits::cpu.data          564                       # number of LockedRMWWriteReq hits (Count)
system.cpu.dcache.LockedRMWWriteReq.hits::total          564                       # number of LockedRMWWriteReq hits (Count)
system.cpu.dcache.LockedRMWWriteReq.accesses::cpu.data          564                       # number of LockedRMWWriteReq accesses(hits+misses) (Count)
system.cpu.dcache.LockedRMWWriteReq.accesses::total          564                       # number of LockedRMWWriteReq accesses(hits+misses) (Count)
system.cpu.dcache.ReadReq.hits::cpu.data       237788                       # number of ReadReq hits (Count)
system.cpu.dcache.ReadReq.hits::total          237788                       # number of ReadReq hits (Count)
system.cpu.dcache.ReadReq.misses::cpu.data         1258                       # number of ReadReq misses (Count)
system.cpu.dcache.ReadReq.misses::total          1258                       # number of ReadReq misses (Count)
system.cpu.dcache.ReadReq.missLatency::cpu.data     73956000                       # number of ReadReq miss ticks (Tick)
system.cpu.dcache.ReadReq.missLatency::total     73956000                       # number of ReadReq miss ticks (Tick)
system.cpu.dcache.ReadReq.accesses::cpu.data       239046                       # number of ReadReq accesses(hits+misses) (Count)
system.cpu.dcache.ReadReq.accesses::total       239046                       # number of ReadReq accesses(hits+misses) (Count)
system.cpu.dcache.ReadReq.missRate::cpu.data     0.005263                       # miss rate for ReadReq accesses (Ratio)
system.cpu.dcache.ReadReq.missRate::total     0.005263                       # miss rate for ReadReq accesses (Ratio)
system.cpu.dcache.ReadReq.avgMissLatency::cpu.data 58788.553259                       # average ReadReq miss latency ((Tick/Count))
system.cpu.dcache.ReadReq.avgMissLatency::total 58788.553259                       # average ReadReq miss latency ((Tick/Count))
system.cpu.dcache.ReadReq.mshrMisses::cpu.data         1258                       # number of ReadReq MSHR misses (Count)
system.cpu.dcache.ReadReq.mshrMisses::total         1258                       # number of ReadReq MSHR misses (Count)
system.cpu.dcache.ReadReq.mshrMissLatency::cpu.data     71440000                       # number of ReadReq MSHR miss ticks (Tick)
system.cpu.dcache.ReadReq.mshrMissLatency::total     71440000                       # number of ReadReq MSHR miss ticks (Tick)
system.cpu.dcache.ReadReq.mshrMissRate::cpu.data     0.005263                       # mshr miss rate for ReadReq accesses (Ratio)
system.cpu.dcache.ReadReq.mshrMissRate::total     0.005263                       # mshr miss rate for ReadReq accesses (Ratio)
system.cpu.dcache.ReadReq.avgMshrMissLatency::cpu.data 56788.553259                       # average ReadReq mshr miss latency ((Tick/Count))
system.cpu.dcache.ReadReq.avgMshrMissLatency::total 56788.553259                       # average ReadReq mshr miss latency ((Tick/Count))
system.cpu.dcache.WriteReq.hits::cpu.data       114600                       # number of WriteReq hits (Count)
system.cpu.dcache.WriteReq.hits::total         114600                       # number of WriteReq hits (Count)
system.cpu.dcache.WriteReq.misses::cpu.data          620                       # number of WriteReq misses (Count)
system.cpu.dcache.WriteReq.misses::total          620                       # number of WriteReq misses (Count)
system.cpu.dcache.WriteReq.missLatency::cpu.data     33947000                       # number of WriteReq miss ticks (Tick)
system.cpu.dcache.WriteReq.missLatency::total     33947000                       # number of WriteReq miss ticks (Tick)
system.cpu.dcache.WriteReq.accesses::cpu.data       115220                       # number of WriteReq accesses(hits+misses) (Count)
system.cpu.dcache.WriteReq.accesses::total       115220                       # number of WriteReq accesses(hits+misses) (Count)
system.cpu.dcache.WriteReq.missRate::cpu.data     0.005381                       # miss rate for WriteReq accesses (Ratio)
system.cpu.dcache.WriteReq.missRate::total     0.005381                       # miss rate for WriteReq accesses (Ratio)
system.cpu.dcache.WriteReq.avgMissLatency::cpu.data 54753.225806                       # average WriteReq miss latency ((Tick/Count))
system.cpu.dcache.WriteReq.avgMissLatency::total 54753.225806                       # average WriteReq miss latency ((Tick/Count))
system.cpu.dcache.WriteReq.mshrMisses::cpu.data          620                       # number of WriteReq MSHR misses (Count)
system.cpu.dcache.WriteReq.mshrMisses::total          620                       # number of WriteReq MSHR misses (Count)
system.cpu.dcache.WriteReq.mshrMissLatency::cpu.data     32707000                       # number of WriteReq MSHR miss ticks (Tick)
system.cpu.dcache.WriteReq.mshrMissLatency::total     32707000                       # number of WriteReq MSHR miss ticks (Tick)
system.cpu.dcache.WriteReq.mshrMissRate::cpu.data     0.005381                       # mshr miss rate for WriteReq accesses (Ratio)
system.cpu.dcache.WriteReq.mshrMissRate::total     0.005381                       # mshr miss rate for WriteReq accesses (Ratio)
system.cpu.dcache.WriteReq.avgMshrMissLatency::cpu.data 52753.225806                       # average WriteReq mshr miss latency ((Tick/Count))
system.cpu.dcache.WriteReq.avgMshrMissLatency::total 52753.225806                       # average WriteReq mshr miss latency ((Tick/Count))
system.cpu.dcache.power_state.pwrStateResidencyTicks::UNDEFINED   3170384000                       # Cumulative time (in ticks) in various power states (Tick)
system.cpu.dcache.tags.tagsInUse          1667.358780                       # Average ticks per tags in use ((Tick/Count))
system.cpu.dcache.tags.totalRefs               355394                       # Total number of references to valid blocks. (Count)
system.cpu.dcache.tags.sampledRefs               1879                       # Sample count of references to valid blocks. (Count)
system.cpu.dcache.tags.avgRefs             189.139968                       # Average number of references to valid blocks. ((Count/Count))
system.cpu.dcache.tags.warmupTick              152000                       # The tick when the warmup percentage was hit. (Tick)
system.cpu.dcache.tags.occupancies::cpu.data  1667.358780                       # Average occupied blocks per tick, per requestor ((Count/Tick))
system.cpu.dcache.tags.avgOccs::cpu.data     0.407070                       # Average percentage of cache occupancy ((Ratio/Tick))
system.cpu.dcache.tags.avgOccs::total        0.407070                       # Average percentage of cache occupancy ((Ratio/Tick))
system.cpu.dcache.tags.occupanciesTaskId::1024         1824                       # Occupied blocks per task id (Count)
system.cpu.dcache.tags.ageTaskId_1024::0            7                       # Occupied blocks per task id, per block age (Count)
system.cpu.dcache.tags.ageTaskId_1024::1            2                       # Occupied blocks per task id, per block age (Count)
system.cpu.dcache.tags.ageTaskId_1024::2           14                       # Occupied blocks per task id, per block age (Count)
system.cpu.dcache.tags.ageTaskId_1024::3         1801                       # Occupied blocks per task id, per block age (Count)
system.cpu.dcache.tags.ratioOccsTaskId::1024     0.445312                       # Ratio of occupied blocks and all blocks, per task id (Ratio)
system.cpu.dcache.tags.tagAccesses             712667                       # Number of tag accesses (Count)
system.cpu.dcache.tags.dataAccesses            712667                       # Number of data accesses (Count)
system.cpu.dcache.tags.power_state.pwrStateResidencyTicks::UNDEFINED   3170384000                       # Cumulative time (in ticks) in various power states (Tick)
system.cpu.exec_context.thread_0.numMatAluAccesses            0                       # Number of matrix alu accesses (Count)
system.cpu.exec_context.thread_0.numCallsReturns        21077                       # Number of times a function call or return occured (Count)
system.cpu.exec_context.thread_0.numMatInsts            0                       # Number of matrix instructions (Count)
system.cpu.exec_context.thread_0.numIdleCycles     0.001000                       # Number of idle cycles (Cycle)
system.cpu.exec_context.thread_0.numBusyCycles 3170383.999000                       # Number of busy cycles (Cycle)
system.cpu.exec_context.thread_0.notIdleFraction     1.000000                       # Percentage of non-idle cycles (Ratio)
system.cpu.exec_context.thread_0.idleFraction     0.000000                       # Percentage of idle cycles (Ratio)
system.cpu.executeStats0.numInsts                   0                       # Number of executed instructions (Count)
system.cpu.executeStats0.numNop                     0                       # Number of nop insts executed (Count)
system.cpu.executeStats0.numBranches                0                       # Number of branches executed (Count)
system.cpu.executeStats0.numLoadInsts               0                       # Number of load instructions executed (Count)
system.cpu.executeStats0.numStoreInsts         355455                       # Number of stores executed (Count)
system.cpu.executeStats0.instRate                   0                       # Inst execution rate ((Count/Cycle))
system.cpu.executeStats0.numFpAluAccesses        86230                       # Number of float alu accesses (Count)
system.cpu.executeStats0.numFpRegReads          82034                       # Number of times the floating registers were read (Count)
system.cpu.executeStats0.numFpRegWrites         71252                       # Number of times the floating registers were written (Count)
system.cpu.executeStats0.numIntAluAccesses      1448112                       # Number of integer alu accesses (Count)
system.cpu.executeStats0.numIntRegReads       1997416                       # Number of times the integer registers were read (Count)
system.cpu.executeStats0.numIntRegWrites      1105619                       # Number of times the integer registers were written (Count)
system.cpu.executeStats0.numMemRefs            355455                       # Number of memory refs (Count)
system.cpu.executeStats0.numMiscRegReads       622208                       # Number of times the Misc registers were read (Count)
system.cpu.executeStats0.numMiscRegWrites           18                       # Number of times the Misc registers were written (Count)
system.cpu.executeStats0.numVecAluAccesses            0                       # Number of vector alu accesses (Count)
system.cpu.executeStats0.numDiscardedOps            0                       # Number of ops (including micro ops) which were discarded before commit (Count)
system.cpu.fetchStats0.numInsts                867321                       # Number of instructions fetched (thread level) (Count)
system.cpu.fetchStats0.numOps                 1521584                       # Number of ops (including micro ops) fetched (thread level) (Count)
system.cpu.fetchStats0.fetchRate             0.273570                       # Number of inst fetches per cycle ((Count/Cycle))
system.cpu.fetchStats0.numBranches             138134                       # Number of branches fetched (Count)
system.cpu.fetchStats0.branchRate            0.043570                       # Number of branch fetches per cycle (Ratio)
system.cpu.fetchStats0.numFetchSuspends             0                       # Number of times Execute suspended instruction fetching (Count)
system.cpu.icache.demandHits::cpu.inst        1141783                       # number of demand (read+write) hits (Count)
system.cpu.icache.demandHits::total           1141783                       # number of demand (read+write) hits (Count)
system.cpu.icache.overallHits::cpu.inst       1141783                       # number of overall hits (Count)
system.cpu.icache.overallHits::total          1141783                       # number of overall hits (Count)
system.cpu.icache.demandMisses::cpu.inst         1315                       # number of demand (read+write) misses (Count)
system.cpu.icache.demandMisses::total            1315                       # number of demand (read+write) misses (Count)
system.cpu.icache.overallMisses::cpu.inst         1315                       # number of overall misses (Count)
system.cpu.icache.overallMisses::total           1315                       # number of overall misses (Count)
system.cpu.icache.demandMissLatency::cpu.inst     71822000                       # number of demand (read+write) miss ticks (Tick)
system.cpu.icache.demandMissLatency::total     71822000                       # number of demand (read+write) miss ticks (Tick)
system.cpu.icache.overallMissLatency::cpu.inst     71822000                       # number of overall miss ticks (Tick)
system.cpu.icache.overallMissLatency::total     71822000                       # number of overall miss ticks (Tick)
system.cpu.icache.demandAccesses::cpu.inst      1143098                       # number of demand (read+write) accesses (Count)
system.cpu.icache.demandAccesses::total       1143098                       # number of demand (read+write) accesses (Count)
system.cpu.icache.overallAccesses::cpu.inst      1143098                       # number of overall (read+write) accesses (Count)
system.cpu.icache.overallAccesses::total      1143098                       # number of overall (read+write) accesses (Count)
system.cpu.icache.demandMissRate::cpu.inst     0.001150                       # miss rate for demand accesses (Ratio)
system.cpu.icache.demandMissRate::total      0.001150                       # miss rate for demand accesses (Ratio)
system.cpu.icache.overallMissRate::cpu.inst     0.001150                       # miss rate for overall accesses (Ratio)
system.cpu.icache.overallMissRate::total     0.001150                       # miss rate for overall accesses (Ratio)
system.cpu.icache.demandAvgMissLatency::cpu.inst 54617.490494                       # average overall miss latency in ticks ((Tick/Count))
system.cpu.icache.demandAvgMissLatency::total 54617.490494                       # average overall miss latency in ticks ((Tick/Count))
system.cpu.icache.overallAvgMissLatency::cpu.inst 54617.490494                       # average overall miss latency ((Tick/Count))
system.cpu.icache.overallAvgMissLatency::total 54617.490494                       # average overall miss latency ((Tick/Count))
system.cpu.icache.blockedCycles::no_mshrs            0                       # number of cycles access was blocked (Cycle)
system.cpu.icache.blockedCycles::no_targets            0                       # number of cycles access was blocked (Cycle)
system.cpu.icache.blockedCauses::no_mshrs            0                       # number of times access was blocked (Count)
system.cpu.icache.blockedCauses::no_targets            0                       # number of times access was blocked (Count)
system.cpu.icache.avgBlocked::no_mshrs            nan                       # average number of cycles each access was blocked ((Cycle/Count))
system.cpu.icache.avgBlocked::no_targets          nan                       # average number of cycles each access was blocked ((Cycle/Count))
system.cpu.icache.demandMshrMisses::cpu.inst         1315                       # number of demand (read+write) MSHR misses (Count)
system.cpu.icache.demandMshrMisses::total         1315                       # number of demand (read+write) MSHR misses (Count)
system.cpu.icache.overallMshrMisses::cpu.inst         1315                       # number of overall MSHR misses (Count)
system.cpu.icache.overallMshrMisses::total         1315                       # number of overall MSHR misses (Count)
system.cpu.icache.demandMshrMissLatency::cpu.inst     69192000                       # number of demand (read+write) MSHR miss ticks (Tick)
system.cpu.icache.demandMshrMissLatency::total     69192000                       # number of demand (read+write) MSHR miss ticks (Tick)
system.cpu.icache.overallMshrMissLatency::cpu.inst     69192000                       # number of overall MSHR miss ticks (Tick)
system.cpu.icache.overallMshrMissLatency::total     69192000                       # number of overall MSHR miss ticks (Tick)
system.cpu.icache.demandMshrMissRate::cpu.inst     0.001150                       # mshr miss ratio for demand accesses (Ratio)
system.cpu.icache.demandMshrMissRate::total     0.001150                       # mshr miss ratio for demand accesses (Ratio)
system.cpu.icache.overallMshrMissRate::cpu.inst     0.001150                       # mshr miss ratio for overall accesses (Ratio)
system.cpu.icache.overallMshrMissRate::total     0.001150                       # mshr miss ratio for overall accesses (Ratio)
system.cpu.icache.demandAvgMshrMissLatency::cpu.inst 52617.490494                       # average overall mshr miss latency ((Tick/Count))
system.cpu.icache.demandAvgMshrMissLatency::total 52617.490494                       # average overall mshr miss latency ((Tick/Count))
system.cpu.icache.overallAvgMshrMissLatency::cpu.inst 52617.490494                       # average overall mshr miss latency ((Tick/Count))
system.cpu.icache.overallAvgMshrMissLatency::total 52617.490494                       # average overall mshr miss latency ((Tick/Count))
system.cpu.icache.replacements                     14                       # number of replacements (Count)
system.cpu.icache.ReadReq.hits::cpu.inst      1141783                       # number of ReadReq hits (Count)
system.cpu.icache.ReadReq.hits::total         1141783                       # number of ReadReq hits (Count)
system.cpu.icache.ReadReq.misses::cpu.inst         1315                       # number of ReadReq misses (Count)
system.cpu.icache.ReadReq.misses::total          1315                       # number of ReadReq misses (Count)
system.cpu.icache.ReadReq.missLatency::cpu.inst     71822000                       # number of ReadReq miss ticks (Tick)
system.cpu.icache.ReadReq.missLatency::total     71822000                       # number of ReadReq miss ticks (Tick)
system.cpu.icache.ReadReq.accesses::cpu.inst      1143098                       # number of ReadReq accesses(hits+misses) (Count)
system.cpu.icache.ReadReq.accesses::total      1143098                       # number of ReadReq accesses(hits+misses) (Count)
system.cpu.icache.ReadReq.missRate::cpu.inst     0.001150                       # miss rate for ReadReq accesses (Ratio)
system.cpu.icache.ReadReq.missRate::total     0.001150                       # miss rate for ReadReq accesses (Ratio)
system.cpu.icache.ReadReq.avgMissLatency::cpu.inst 54617.490494                       # average ReadReq miss latency ((Tick/Count))
system.cpu.icache.ReadReq.avgMissLatency::total 54617.490494                       # average ReadReq miss latency ((Tick/Count))
system.cpu.icache.ReadReq.mshrMisses::cpu.inst         1315                       # number of ReadReq MSHR misses (Count)
system.cpu.icache.ReadReq.mshrMisses::total         1315                       # number of ReadReq MSHR misses (Count)
system.cpu.icache.ReadReq.mshrMissLatency::cpu.inst     69192000                       # number of ReadReq MSHR miss ticks (Tick)
system.cpu.icache.ReadReq.mshrMissLatency::total     69192000                       # number of ReadReq MSHR miss ticks (Tick)
system.cpu.icache.ReadReq.mshrMissRate::cpu.inst     0.001150                       # mshr miss rate for ReadReq accesses (Ratio)
system.cpu.icache.ReadReq.mshrMissRate::total     0.001150                       # mshr miss rate for ReadReq accesses (Ratio)
system.cpu.icache.ReadReq.avgMshrMissLatency::cpu.inst 52617.490494                       # average ReadReq mshr miss latency ((Tick/Count))
system.cpu.icache.ReadReq.avgMshrMissLatency::total 52617.490494                       # average ReadReq mshr miss latency ((Tick/Count))
system.cpu.icache.power_state.pwrStateResidencyTicks::UNDEFINED   3170384000                       # Cumulative time (in ticks) in various power states (Tick)
system.cpu.icache.tags.tagsInUse          1073.389919                       # Average ticks per tags in use ((Tick/Count))
system.cpu.icache.tags.totalRefs              1143098                       # Total number of references to valid blocks. (Count)
system.cpu.icache.tags.sampledRefs               1315                       # Sample count of references to valid blocks. (Count)
system.cpu.icache.tags.avgRefs             869.276046                       # Average number of references to valid blocks. ((Count/Count))
system.cpu.icache.tags.warmupTick               73000                       # The tick when the warmup percentage was hit. (Tick)
system.cpu.icache.tags.occupancies::cpu.inst  1073.389919                       # Average occupied blocks per tick, per requestor ((Count/Tick))
system.cpu.icache.tags.avgOccs::cpu.inst     0.262058                       # Average percentage of cache occupancy ((Ratio/Tick))
system.cpu.icache.tags.avgOccs::total        0.262058                       # Average percentage of cache occupancy ((Ratio/Tick))
system.cpu.icache.tags.occupanciesTaskId::1024         1301                       # Occupied blocks per task id (Count)
system.cpu.icache.tags.ageTaskId_1024::0           84                       # Occupied blocks per task id, per block age (Count)
system.cpu.icache.tags.ageTaskId_1024::1            2                       # Occupied blocks per task id, per block age (Count)
system.cpu.icache.tags.ageTaskId_1024::3         1215                       # Occupied blocks per task id, per block age (Count)
system.cpu.icache.tags.ratioOccsTaskId::1024     0.317627                       # Ratio of occupied blocks and all blocks, per task id (Ratio)
system.cpu.icache.tags.tagAccesses            2287511                       # Number of tag accesses (Count)
system.cpu.icache.tags.dataAccesses           2287511                       # Number of data accesses (Count)
system.cpu.icache.tags.power_state.pwrStateResidencyTicks::UNDEFINED   3170384000                       # Cumulative time (in ticks) in various power states (Tick)
system.cpu.interrupts.clk_domain.clock          16000                       # Clock period in ticks (Tick)
system.cpu.mmu.dtb.rdAccesses                  239667                       # TLB accesses on read requests (Count)
system.cpu.mmu.dtb.wrAccesses                  115798                       # TLB accesses on write requests (Count)
system.cpu.mmu.dtb.rdMisses                       173                       # TLB misses on read requests (Count)
system.cpu.mmu.dtb.wrMisses                        38                       # TLB misses on write requests (Count)
system.cpu.mmu.dtb.walker.power_state.pwrStateResidencyTicks::UNDEFINED   3170384000                       # Cumulative time (in ticks) in various power states (Tick)
system.cpu.mmu.itb.rdAccesses                       0                       # TLB accesses on read requests (Count)
system.cpu.mmu.itb.wrAccesses                 1143148                       # TLB accesses on write requests (Count)
system.cpu.mmu.itb.rdMisses                         0                       # TLB misses on read requests (Count)
system.cpu.mmu.itb.wrMisses                       198                       # TLB misses on write requests (Count)
system.cpu.mmu.itb.walker.power_state.pwrStateResidencyTicks::UNDEFINED   3170384000                       # Cumulative time (in ticks) in various power states (Tick)
system.cpu.power_state.pwrStateResidencyTicks::ON   3170384000                       # Cumulative time (in ticks) in various power states (Tick)
system.cpu.thread_0.numInsts                        0                       # Number of Instructions committed (Count)
system.cpu.thread_0.numOps                          0                       # Number of Ops committed (Count)
system.cpu.thread_0.numMemRefs                      0                       # Number of Memory References (Count)
system.cpu.workload.numSyscalls                    39                       # Number of system calls (Count)
system.cpu_clk_domain.clock                       500                       # Clock period in ticks (Tick)
system.cpu_clk_domain.voltage_domain.voltage            1                       # Voltage in Volts (Volt)
system.l1_cache_A.blockedCycles::no_mshrs            0                       # number of cycles access was blocked (Cycle)
system.l1_cache_A.blockedCycles::no_targets            0                       # number of cycles access was blocked (Cycle)
system.l1_cache_A.blockedCauses::no_mshrs            0                       # number of times access was blocked (Count)
system.l1_cache_A.blockedCauses::no_targets            0                       # number of times access was blocked (Count)
system.l1_cache_A.avgBlocked::no_mshrs            nan                       # average number of cycles each access was blocked ((Cycle/Count))
system.l1_cache_A.avgBlocked::no_targets          nan                       # average number of cycles each access was blocked ((Cycle/Count))
system.l1_cache_A.replacements                      0                       # number of replacements (Count)
system.l1_cache_A.power_state.pwrStateResidencyTicks::UNDEFINED   3170384000                       # Cumulative time (in ticks) in various power states (Tick)
system.l1_cache_A.tags.tagsInUse                    0                       # Average ticks per tags in use ((Tick/Count))
system.l1_cache_A.tags.totalRefs                    0                       # Total number of references to valid blocks. (Count)
system.l1_cache_A.tags.sampledRefs                  0                       # Sample count of references to valid blocks. (Count)
system.l1_cache_A.tags.avgRefs                    nan                       # Average number of references to valid blocks. ((Count/Count))
system.l1_cache_A.tags.warmupTick                   0                       # The tick when the warmup percentage was hit. (Tick)
system.l1_cache_A.tags.tagAccesses                  0                       # Number of tag accesses (Count)
system.l1_cache_A.tags.dataAccesses                 0                       # Number of data accesses (Count)
system.l1_cache_A.tags.power_state.pwrStateResidencyTicks::UNDEFINED   3170384000                       # Cumulative time (in ticks) in various power states (Tick)
system.l1_cache_B.blockedCycles::no_mshrs            0                       # number of cycles access was blocked (Cycle)
system.l1_cache_B.blockedCycles::no_targets            0                       # number of cycles access was blocked (Cycle)
system.l1_cache_B.blockedCauses::no_mshrs            0                       # number of times access was blocked (Count)
system.l1_cache_B.blockedCauses::no_targets            0                       # number of times access was blocked (Count)
system.l1_cache_B.avgBlocked::no_mshrs            nan                       # average number of cycles each access was blocked ((Cycle/Count))
system.l1_cache_B.avgBlocked::no_targets          nan                       # average number of cycles each access was blocked ((Cycle/Count))
system.l1_cache_B.replacements                      0                       # number of replacements (Count)
system.l1_cache_B.power_state.pwrStateResidencyTicks::UNDEFINED   3170384000                       # Cumulative time (in ticks) in various power states (Tick)
system.l1_cache_B.tags.tagsInUse                    0                       # Average ticks per tags in use ((Tick/Count))
system.l1_cache_B.tags.totalRefs                    0                       # Total number of references to valid blocks. (Count)
system.l1_cache_B.tags.sampledRefs                  0                       # Sample count of references to valid blocks. (Count)
system.l1_cache_B.tags.avgRefs                    nan                       # Average number of references to valid blocks. ((Count/Count))
system.l1_cache_B.tags.warmupTick                   0                       # The tick when the warmup percentage was hit. (Tick)
system.l1_cache_B.tags.tagAccesses                  0                       # Number of tag accesses (Count)
system.l1_cache_B.tags.dataAccesses                 0                       # Number of data accesses (Count)
system.l1_cache_B.tags.power_state.pwrStateResidencyTicks::UNDEFINED   3170384000                       # Cumulative time (in ticks) in various power states (Tick)
system.l1_cache_results.demandMisses::writebacks           20                       # number of demand (read+write) misses (Count)
system.l1_cache_results.demandMisses::total           20                       # number of demand (read+write) misses (Count)
system.l1_cache_results.overallMisses::writebacks           20                       # number of overall misses (Count)
system.l1_cache_results.overallMisses::total           20                       # number of overall misses (Count)
system.l1_cache_results.demandMissLatency::writebacks      1630000                       # number of demand (read+write) miss ticks (Tick)
system.l1_cache_results.demandMissLatency::total      1630000                       # number of demand (read+write) miss ticks (Tick)
system.l1_cache_results.overallMissLatency::writebacks      1630000                       # number of overall miss ticks (Tick)
system.l1_cache_results.overallMissLatency::total      1630000                       # number of overall miss ticks (Tick)
system.l1_cache_results.demandAccesses::writebacks           20                       # number of demand (read+write) accesses (Count)
system.l1_cache_results.demandAccesses::total           20                       # number of demand (read+write) accesses (Count)
system.l1_cache_results.overallAccesses::writebacks           20                       # number of overall (read+write) accesses (Count)
system.l1_cache_results.overallAccesses::total           20                       # number of overall (read+write) accesses (Count)
system.l1_cache_results.demandMissRate::writebacks            1                       # miss rate for demand accesses (Ratio)
system.l1_cache_results.demandMissRate::total            1                       # miss rate for demand accesses (Ratio)
system.l1_cache_results.overallMissRate::writebacks            1                       # miss rate for overall accesses (Ratio)
system.l1_cache_results.overallMissRate::total            1                       # miss rate for overall accesses (Ratio)
system.l1_cache_results.demandAvgMissLatency::writebacks        81500                       # average overall miss latency in ticks ((Tick/Count))
system.l1_cache_results.demandAvgMissLatency::total        81500                       # average overall miss latency in ticks ((Tick/Count))
system.l1_cache_results.overallAvgMissLatency::writebacks        81500                       # average overall miss latency ((Tick/Count))
system.l1_cache_results.overallAvgMissLatency::total        81500                       # average overall miss latency ((Tick/Count))
system.l1_cache_results.blockedCycles::no_mshrs            0                       # number of cycles access was blocked (Cycle)
system.l1_cache_results.blockedCycles::no_targets           77                       # number of cycles access was blocked (Cycle)
system.l1_cache_results.blockedCauses::no_mshrs            0                       # number of times access was blocked (Count)
system.l1_cache_results.blockedCauses::no_targets            1                       # number of times access was blocked (Count)
system.l1_cache_results.avgBlocked::no_mshrs          nan                       # average number of cycles each access was blocked ((Cycle/Count))
system.l1_cache_results.avgBlocked::no_targets           77                       # average number of cycles each access was blocked ((Cycle/Count))
system.l1_cache_results.demandMshrHits::writebacks           19                       # number of demand (read+write) MSHR hits (Count)
system.l1_cache_results.demandMshrHits::total           19                       # number of demand (read+write) MSHR hits (Count)
system.l1_cache_results.overallMshrHits::writebacks           19                       # number of overall MSHR hits (Count)
system.l1_cache_results.overallMshrHits::total           19                       # number of overall MSHR hits (Count)
system.l1_cache_results.demandMshrMisses::writebacks            1                       # number of demand (read+write) MSHR misses (Count)
system.l1_cache_results.demandMshrMisses::total            1                       # number of demand (read+write) MSHR misses (Count)
system.l1_cache_results.overallMshrMisses::writebacks            1                       # number of overall MSHR misses (Count)
system.l1_cache_results.overallMshrMisses::total            1                       # number of overall MSHR misses (Count)
system.l1_cache_results.demandMshrMissLatency::writebacks        77600                       # number of demand (read+write) MSHR miss ticks (Tick)
system.l1_cache_results.demandMshrMissLatency::total        77600                       # number of demand (read+write) MSHR miss ticks (Tick)
system.l1_cache_results.overallMshrMissLatency::writebacks        77600                       # number of overall MSHR miss ticks (Tick)
system.l1_cache_results.overallMshrMissLatency::total        77600                       # number of overall MSHR miss ticks (Tick)
system.l1_cache_results.demandMshrMissRate::writebacks     0.050000                       # mshr miss ratio for demand accesses (Ratio)
system.l1_cache_results.demandMshrMissRate::total     0.050000                       # mshr miss ratio for demand accesses (Ratio)
system.l1_cache_results.overallMshrMissRate::writebacks     0.050000                       # mshr miss ratio for overall accesses (Ratio)
system.l1_cache_results.overallMshrMissRate::total     0.050000                       # mshr miss ratio for overall accesses (Ratio)
system.l1_cache_results.demandAvgMshrMissLatency::writebacks        77600                       # average overall mshr miss latency ((Tick/Count))
system.l1_cache_results.demandAvgMshrMissLatency::total        77600                       # average overall mshr miss latency ((Tick/Count))
system.l1_cache_results.overallAvgMshrMissLatency::writebacks        77600                       # average overall mshr miss latency ((Tick/Count))
system.l1_cache_results.overallAvgMshrMissLatency::total        77600                       # average overall mshr miss latency ((Tick/Count))
system.l1_cache_results.replacements                0                       # number of replacements (Count)
system.l1_cache_results.WriteReq.misses::writebacks           20                       # number of WriteReq misses (Count)
system.l1_cache_results.WriteReq.misses::total           20                       # number of WriteReq misses (Count)
system.l1_cache_results.WriteReq.missLatency::writebacks      1630000                       # number of WriteReq miss ticks (Tick)
system.l1_cache_results.WriteReq.missLatency::total      1630000                       # number of WriteReq miss ticks (Tick)
system.l1_cache_results.WriteReq.accesses::writebacks           20                       # number of WriteReq accesses(hits+misses) (Count)
system.l1_cache_results.WriteReq.accesses::total           20                       # number of WriteReq accesses(hits+misses) (Count)
system.l1_cache_results.WriteReq.missRate::writebacks            1                       # miss rate for WriteReq accesses (Ratio)
system.l1_cache_results.WriteReq.missRate::total            1                       # miss rate for WriteReq accesses (Ratio)
system.l1_cache_results.WriteReq.avgMissLatency::writebacks        81500                       # average WriteReq miss latency ((Tick/Count))
system.l1_cache_results.WriteReq.avgMissLatency::total        81500                       # average WriteReq miss latency ((Tick/Count))
system.l1_cache_results.WriteReq.mshrHits::writebacks           19                       # number of WriteReq MSHR hits (Count)
system.l1_cache_results.WriteReq.mshrHits::total           19                       # number of WriteReq MSHR hits (Count)
system.l1_cache_results.WriteReq.mshrMisses::writebacks            1                       # number of WriteReq MSHR misses (Count)
system.l1_cache_results.WriteReq.mshrMisses::total            1                       # number of WriteReq MSHR misses (Count)
system.l1_cache_results.WriteReq.mshrMissLatency::writebacks        77600                       # number of WriteReq MSHR miss ticks (Tick)
system.l1_cache_results.WriteReq.mshrMissLatency::total        77600                       # number of WriteReq MSHR miss ticks (Tick)
system.l1_cache_results.WriteReq.mshrMissRate::writebacks     0.050000                       # mshr miss rate for WriteReq accesses (Ratio)
system.l1_cache_results.WriteReq.mshrMissRate::total     0.050000                       # mshr miss rate for WriteReq accesses (Ratio)
system.l1_cache_results.WriteReq.avgMshrMissLatency::writebacks        77600                       # average WriteReq mshr miss latency ((Tick/Count))
system.l1_cache_results.WriteReq.avgMshrMissLatency::total        77600                       # average WriteReq mshr miss latency ((Tick/Count))
system.l1_cache_results.power_state.pwrStateResidencyTicks::UNDEFINED   3170384000                       # Cumulative time (in ticks) in various power states (Tick)
system.l1_cache_results.tags.tagsInUse       0.999975                       # Average ticks per tags in use ((Tick/Count))
system.l1_cache_results.tags.totalRefs              1                       # Total number of references to valid blocks. (Count)
system.l1_cache_results.tags.sampledRefs            1                       # Sample count of references to valid blocks. (Count)
system.l1_cache_results.tags.avgRefs                1                       # Average number of references to valid blocks. ((Count/Count))
system.l1_cache_results.tags.warmupTick         78000                       # The tick when the warmup percentage was hit. (Tick)
system.l1_cache_results.tags.occupancies::writebacks     0.999975                       # Average occupied blocks per tick, per requestor ((Count/Tick))
system.l1_cache_results.tags.avgOccs::writebacks     0.000244                       # Average percentage of cache occupancy ((Ratio/Tick))
system.l1_cache_results.tags.avgOccs::total     0.000244                       # Average percentage of cache occupancy ((Ratio/Tick))
system.l1_cache_results.tags.occupanciesTaskId::1024            1                       # Occupied blocks per task id (Count)
system.l1_cache_results.tags.ageTaskId_1024::3            1                       # Occupied blocks per task id, per block age (Count)
system.l1_cache_results.tags.ratioOccsTaskId::1024     0.000244                       # Ratio of occupied blocks and all blocks, per task id (Ratio)
system.l1_cache_results.tags.tagAccesses           41                       # Number of tag accesses (Count)
system.l1_cache_results.tags.dataAccesses           41                       # Number of data accesses (Count)
system.l1_cache_results.tags.power_state.pwrStateResidencyTicks::UNDEFINED   3170384000                       # Cumulative time (in ticks) in various power states (Tick)
system.l2_cache_A.blockedCycles::no_mshrs            0                       # number of cycles access was blocked (Cycle)
system.l2_cache_A.blockedCycles::no_targets            0                       # number of cycles access was blocked (Cycle)
system.l2_cache_A.blockedCauses::no_mshrs            0                       # number of times access was blocked (Count)
system.l2_cache_A.blockedCauses::no_targets            0                       # number of times access was blocked (Count)
system.l2_cache_A.avgBlocked::no_mshrs            nan                       # average number of cycles each access was blocked ((Cycle/Count))
system.l2_cache_A.avgBlocked::no_targets          nan                       # average number of cycles each access was blocked ((Cycle/Count))
system.l2_cache_A.replacements                      0                       # number of replacements (Count)
system.l2_cache_A.power_state.pwrStateResidencyTicks::UNDEFINED   3170384000                       # Cumulative time (in ticks) in various power states (Tick)
system.l2_cache_A.tags.tagsInUse                    0                       # Average ticks per tags in use ((Tick/Count))
system.l2_cache_A.tags.totalRefs                    0                       # Total number of references to valid blocks. (Count)
system.l2_cache_A.tags.sampledRefs                  0                       # Sample count of references to valid blocks. (Count)
system.l2_cache_A.tags.avgRefs                    nan                       # Average number of references to valid blocks. ((Count/Count))
system.l2_cache_A.tags.warmupTick                   0                       # The tick when the warmup percentage was hit. (Tick)
system.l2_cache_A.tags.tagAccesses                  0                       # Number of tag accesses (Count)
system.l2_cache_A.tags.dataAccesses                 0                       # Number of data accesses (Count)
system.l2_cache_A.tags.power_state.pwrStateResidencyTicks::UNDEFINED   3170384000                       # Cumulative time (in ticks) in various power states (Tick)
system.l2_cache_B.blockedCycles::no_mshrs            0                       # number of cycles access was blocked (Cycle)
system.l2_cache_B.blockedCycles::no_targets            0                       # number of cycles access was blocked (Cycle)
system.l2_cache_B.blockedCauses::no_mshrs            0                       # number of times access was blocked (Count)
system.l2_cache_B.blockedCauses::no_targets            0                       # number of times access was blocked (Count)
system.l2_cache_B.avgBlocked::no_mshrs            nan                       # average number of cycles each access was blocked ((Cycle/Count))
system.l2_cache_B.avgBlocked::no_targets          nan                       # average number of cycles each access was blocked ((Cycle/Count))
system.l2_cache_B.replacements                      0                       # number of replacements (Count)
system.l2_cache_B.power_state.pwrStateResidencyTicks::UNDEFINED   3170384000                       # Cumulative time (in ticks) in various power states (Tick)
system.l2_cache_B.tags.tagsInUse                    0                       # Average ticks per tags in use ((Tick/Count))
system.l2_cache_B.tags.totalRefs                    0                       # Total number of references to valid blocks. (Count)
system.l2_cache_B.tags.sampledRefs                  0                       # Sample count of references to valid blocks. (Count)
system.l2_cache_B.tags.avgRefs                    nan                       # Average number of references to valid blocks. ((Count/Count))
system.l2_cache_B.tags.warmupTick                   0                       # The tick when the warmup percentage was hit. (Tick)
system.l2_cache_B.tags.tagAccesses                  0                       # Number of tag accesses (Count)
system.l2_cache_B.tags.dataAccesses                 0                       # Number of data accesses (Count)
system.l2_cache_B.tags.power_state.pwrStateResidencyTicks::UNDEFINED   3170384000                       # Cumulative time (in ticks) in various power states (Tick)
system.l2bus.transDist::ReadResp                 2573                       # Transaction distribution (Count)
system.l2bus.transDist::WritebackDirty             16                       # Transaction distribution (Count)
system.l2bus.transDist::CleanEvict                 53                       # Transaction distribution (Count)
system.l2bus.transDist::ReadExReq                 622                       # Transaction distribution (Count)
system.l2bus.transDist::ReadExResp                622                       # Transaction distribution (Count)
system.l2bus.transDist::ReadSharedReq            2573                       # Transaction distribution (Count)
system.l2bus.pktCount_system.cpu.icache.mem_side_port::system.membus.cpu_side_port[0]         2644                       # Packet count per connected requestor and responder (Count)
system.l2bus.pktCount_system.cpu.dcache.mem_side_port::system.membus.cpu_side_port[0]         3813                       # Packet count per connected requestor and responder (Count)
system.l2bus.pktCount_system.l1_cache_results.mem_side_port::system.membus.cpu_side_port[0]            2                       # Packet count per connected requestor and responder (Count)
system.l2bus.pktCount::total                     6459                       # Packet count per connected requestor and responder (Count)
system.l2bus.pktSize_system.cpu.icache.mem_side_port::system.membus.cpu_side_port[0]        84160                       # Cumulative packet size per connected requestor and responder (Byte)
system.l2bus.pktSize_system.cpu.dcache.mem_side_port::system.membus.cpu_side_port[0]       121280                       # Cumulative packet size per connected requestor and responder (Byte)
system.l2bus.pktSize_system.l1_cache_results.mem_side_port::system.membus.cpu_side_port[0]           64                       # Cumulative packet size per connected requestor and responder (Byte)
system.l2bus.pktSize::total                    205504                       # Cumulative packet size per connected requestor and responder (Byte)
system.l2bus.snoops                                 0                       # Total snoops (Count)
system.l2bus.snoopTraffic                           0                       # Total snoop traffic (Byte)
system.l2bus.snoopFanout::samples                3195                       # Request fanout histogram (Count)
system.l2bus.snoopFanout::mean                      0                       # Request fanout histogram (Count)
system.l2bus.snoopFanout::stdev                     0                       # Request fanout histogram (Count)
system.l2bus.snoopFanout::underflows                0      0.00%      0.00% # Request fanout histogram (Count)
system.l2bus.snoopFanout::0                      3195    100.00%    100.00% # Request fanout histogram (Count)
system.l2bus.snoopFanout::1                         0      0.00%    100.00% # Request fanout histogram (Count)
system.l2bus.snoopFanout::2                         0      0.00%    100.00% # Request fanout histogram (Count)
system.l2bus.snoopFanout::3                         0      0.00%    100.00% # Request fanout histogram (Count)
system.l2bus.snoopFanout::overflows                 0      0.00%    100.00% # Request fanout histogram (Count)
system.l2bus.snoopFanout::min_value                 0                       # Request fanout histogram (Count)
system.l2bus.snoopFanout::max_value                 0                       # Request fanout histogram (Count)
system.l2bus.snoopFanout::total                  3195                       # Request fanout histogram (Count)
system.l2bus.power_state.pwrStateResidencyTicks::UNDEFINED   3170384000                       # Cumulative time (in ticks) in various power states (Tick)
system.l2bus.reqLayer0.occupancy              3296000                       # Layer occupancy (ticks) (Tick)
system.l2bus.reqLayer0.utilization                0.0                       # Layer utilization (Ratio)
system.l2bus.respLayer0.occupancy             3945000                       # Layer occupancy (ticks) (Tick)
system.l2bus.respLayer0.utilization               0.0                       # Layer utilization (Ratio)
system.l2bus.respLayer1.occupancy             5637000                       # Layer occupancy (ticks) (Tick)
system.l2bus.respLayer1.utilization               0.0                       # Layer utilization (Ratio)
system.l2bus.respLayer2.occupancy                3000                       # Layer occupancy (ticks) (Tick)
system.l2bus.respLayer2.utilization               0.0                       # Layer utilization (Ratio)
system.l2bus.snoop_filter.totRequests            3264                       # Total number of requests made to the snoop filter. (Count)
system.l2bus.snoop_filter.hitSingleRequests           69                       # Number of requests hitting in the snoop filter with a single holder of the requested data. (Count)
system.l2bus.snoop_filter.hitMultiRequests            0                       # Number of requests hitting in the snoop filter with multiple (>1) holders of the requested data. (Count)
system.l2bus.snoop_filter.totSnoops                 0                       # Total number of snoops made to the snoop filter. (Count)
system.l2bus.snoop_filter.hitSingleSnoops            0                       # Number of snoops hitting in the snoop filter with a single holder of the requested data. (Count)
system.l2bus.snoop_filter.hitMultiSnoops            0                       # Number of snoops hitting in the snoop filter with multiple (>1) holders of the requested data. (Count)
system.mem_clk_domain.clock                      1000                       # Clock period in ticks (Tick)
system.mem_clk_domain.voltage_domain.voltage            1                       # Voltage in Volts (Volt)
system.mem_ctrl.avgPriority_writebacks::samples        17.00                       # Average QoS priority value for accepted requests (Count)
system.mem_ctrl.avgPriority_cpu.inst::samples      1315.00                       # Average QoS priority value for accepted requests (Count)
system.mem_ctrl.avgPriority_cpu.data::samples      1868.00                       # Average QoS priority value for accepted requests (Count)
system.mem_ctrl.priorityMinLatency       0.000000018750                       # per QoS priority minimum request to response latency (Second)
system.mem_ctrl.priorityMaxLatency       0.000000579000                       # per QoS priority maximum request to response latency (Second)
system.mem_ctrl.numReadWriteTurnArounds             0                       # Number of turnarounds from READ to WRITE (Count)
system.mem_ctrl.numWriteReadTurnArounds             0                       # Number of turnarounds from WRITE to READ (Count)
system.mem_ctrl.numStayReadState                 7197                       # Number of times bus staying in READ state (Count)
system.mem_ctrl.numStayWriteState                   0                       # Number of times bus staying in WRITE state (Count)
system.mem_ctrl.readReqs                         3195                       # Number of read requests accepted (Count)
system.mem_ctrl.writeReqs                          16                       # Number of write requests accepted (Count)
system.mem_ctrl.readBursts                       3195                       # Number of controller read bursts, including those serviced by the write queue (Count)
system.mem_ctrl.writeBursts                        16                       # Number of controller write bursts, including those merged in the write queue (Count)
system.mem_ctrl.servicedByWrQ                      11                       # Number of controller read bursts serviced by the write queue (Count)
system.mem_ctrl.mergedWrBursts                      0                       # Number of controller write bursts merged with an existing one (Count)
system.mem_ctrl.neitherReadNorWriteReqs             0                       # Number of requests that are neither read nor write (Count)
system.mem_ctrl.avgRdQLen                        1.00                       # Average read queue length when enqueuing ((Count/Tick))
system.mem_ctrl.avgWrQLen                       13.02                       # Average write queue length when enqueuing ((Count/Tick))
system.mem_ctrl.numRdRetry                          0                       # Number of times read queue was full causing retry (Count)
system.mem_ctrl.numWrRetry                          0                       # Number of times write queue was full causing retry (Count)
system.mem_ctrl.readPktSize::0                      0                       # Read request sizes (log2) (Count)
system.mem_ctrl.readPktSize::1                      0                       # Read request sizes (log2) (Count)
system.mem_ctrl.readPktSize::2                      0                       # Read request sizes (log2) (Count)
system.mem_ctrl.readPktSize::3                      0                       # Read request sizes (log2) (Count)
system.mem_ctrl.readPktSize::4                      0                       # Read request sizes (log2) (Count)
system.mem_ctrl.readPktSize::5                      0                       # Read request sizes (log2) (Count)
system.mem_ctrl.readPktSize::6                   3195                       # Read request sizes (log2) (Count)
system.mem_ctrl.writePktSize::0                     0                       # Write request sizes (log2) (Count)
system.mem_ctrl.writePktSize::1                     0                       # Write request sizes (log2) (Count)
system.mem_ctrl.writePktSize::2                     0                       # Write request sizes (log2) (Count)
system.mem_ctrl.writePktSize::3                     0                       # Write request sizes (log2) (Count)
system.mem_ctrl.writePktSize::4                     0                       # Write request sizes (log2) (Count)
system.mem_ctrl.writePktSize::5                     0                       # Write request sizes (log2) (Count)
system.mem_ctrl.writePktSize::6                    16                       # Write request sizes (log2) (Count)
system.mem_ctrl.rdQLenPdf::0                     3183                       # What read queue length does an incoming req see (Count)
system.mem_ctrl.rdQLenPdf::1                        1                       # What read queue length does an incoming req see (Count)
system.mem_ctrl.rdQLenPdf::2                        0                       # What read queue length does an incoming req see (Count)
system.mem_ctrl.rdQLenPdf::3                        0                       # What read queue length does an incoming req see (Count)
system.mem_ctrl.rdQLenPdf::4                        0                       # What read queue length does an incoming req see (Count)
system.mem_ctrl.rdQLenPdf::5                        0                       # What read queue length does an incoming req see (Count)
system.mem_ctrl.rdQLenPdf::6                        0                       # What read queue length does an incoming req see (Count)
system.mem_ctrl.rdQLenPdf::7                        0                       # What read queue length does an incoming req see (Count)
system.mem_ctrl.rdQLenPdf::8                        0                       # What read queue length does an incoming req see (Count)
system.mem_ctrl.rdQLenPdf::9                        0                       # What read queue length does an incoming req see (Count)
system.mem_ctrl.rdQLenPdf::10                       0                       # What read queue length does an incoming req see (Count)
system.mem_ctrl.rdQLenPdf::11                       0                       # What read queue length does an incoming req see (Count)
system.mem_ctrl.rdQLenPdf::12                       0                       # What read queue length does an incoming req see (Count)
[...]
system.mem_ctrl.dram.bwRead::writebacks         20187                       # Total read bandwidth from this memory ((Byte/Second))
system.mem_ctrl.dram.bwRead::cpu.inst        26545680                       # Total read bandwidth from this memory ((Byte/Second))
system.mem_ctrl.dram.bwRead::cpu.data        37931052                       # Total read bandwidth from this memory ((Byte/Second))
system.mem_ctrl.dram.bwRead::total           64496919                       # Total read bandwidth from this memory ((Byte/Second))
system.mem_ctrl.dram.bwInstRead::cpu.inst     26545680                       # Instruction read bandwidth from this memory ((Byte/Second))
system.mem_ctrl.dram.bwInstRead::total       26545680                       # Instruction read bandwidth from this memory ((Byte/Second))
system.mem_ctrl.dram.bwWrite::writebacks       322989                       # Write bandwidth from this memory ((Byte/Second))
system.mem_ctrl.dram.bwWrite::total            322989                       # Write bandwidth from this memory ((Byte/Second))
system.mem_ctrl.dram.bwTotal::writebacks       343176                       # Total bandwidth to/from this memory ((Byte/Second))
system.mem_ctrl.dram.bwTotal::cpu.inst       26545680                       # Total bandwidth to/from this memory ((Byte/Second))
system.mem_ctrl.dram.bwTotal::cpu.data       37931052                       # Total bandwidth to/from this memory ((Byte/Second))
system.mem_ctrl.dram.bwTotal::total          64819908                       # Total bandwidth to/from this memory ((Byte/Second))
system.mem_ctrl.dram.readBursts                  3184                       # Number of DRAM read bursts (Count)
system.mem_ctrl.dram.writeBursts                    0                       # Number of DRAM write bursts (Count)
system.mem_ctrl.dram.perBankRdBursts::0           251                       # Per bank write bursts (Count)
system.mem_ctrl.dram.perBankRdBursts::1           259                       # Per bank write bursts (Count)
system.mem_ctrl.dram.perBankRdBursts::2           180                       # Per bank write bursts (Count)
system.mem_ctrl.dram.perBankRdBursts::3           169                       # Per bank write bursts (Count)
system.mem_ctrl.dram.perBankRdBursts::4           136                       # Per bank write bursts (Count)
system.mem_ctrl.dram.perBankRdBursts::5           122                       # Per bank write bursts (Count)
system.mem_ctrl.dram.perBankRdBursts::6           154                       # Per bank write bursts (Count)
system.mem_ctrl.dram.perBankRdBursts::7           276                       # Per bank write bursts (Count)
system.mem_ctrl.dram.perBankRdBursts::8           171                       # Per bank write bursts (Count)
system.mem_ctrl.dram.perBankRdBursts::9           209                       # Per bank write bursts (Count)
system.mem_ctrl.dram.perBankRdBursts::10          106                       # Per bank write bursts (Count)
system.mem_ctrl.dram.perBankRdBursts::11          161                       # Per bank write bursts (Count)
system.mem_ctrl.dram.perBankRdBursts::12          200                       # Per bank write bursts (Count)
system.mem_ctrl.dram.perBankRdBursts::13          215                       # Per bank write bursts (Count)
system.mem_ctrl.dram.perBankRdBursts::14          275                       # Per bank write bursts (Count)
system.mem_ctrl.dram.perBankRdBursts::15          300                       # Per bank write bursts (Count)
system.mem_ctrl.dram.perBankWrBursts::0             0                       # Per bank write bursts (Count)
system.mem_ctrl.dram.perBankWrBursts::1             0                       # Per bank write bursts (Count)
system.mem_ctrl.dram.perBankWrBursts::2             0                       # Per bank write bursts (Count)
system.mem_ctrl.dram.perBankWrBursts::3             0                       # Per bank write bursts (Count)
system.mem_ctrl.dram.perBankWrBursts::4             0                       # Per bank write bursts (Count)
system.mem_ctrl.dram.perBankWrBursts::5             0                       # Per bank write bursts (Count)
system.mem_ctrl.dram.perBankWrBursts::6             0                       # Per bank write bursts (Count)
system.mem_ctrl.dram.perBankWrBursts::7             0                       # Per bank write bursts (Count)
system.mem_ctrl.dram.perBankWrBursts::8             0                       # Per bank write bursts (Count)
system.mem_ctrl.dram.perBankWrBursts::9             0                       # Per bank write bursts (Count)
system.mem_ctrl.dram.perBankWrBursts::10            0                       # Per bank write bursts (Count)
system.mem_ctrl.dram.perBankWrBursts::11            0                       # Per bank write bursts (Count)
system.mem_ctrl.dram.perBankWrBursts::12            0                       # Per bank write bursts (Count)
system.mem_ctrl.dram.perBankWrBursts::13            0                       # Per bank write bursts (Count)
system.mem_ctrl.dram.perBankWrBursts::14            0                       # Per bank write bursts (Count)
system.mem_ctrl.dram.perBankWrBursts::15            0                       # Per bank write bursts (Count)
system.mem_ctrl.dram.totQLat                 23412500                       # Total ticks spent queuing (Tick)
system.mem_ctrl.dram.totBusLat               15920000                       # Total ticks spent in databus transfers (Tick)
system.mem_ctrl.dram.totMemAccLat            83112500                       # Total ticks spent from burst creation until serviced by the DRAM (Tick)
system.mem_ctrl.dram.avgQLat                  7353.17                       # Average queueing delay per DRAM burst ((Tick/Count))
system.mem_ctrl.dram.avgBusLat                5000.00                       # Average bus latency per DRAM burst ((Tick/Count))
system.mem_ctrl.dram.avgMemAccLat            26103.17                       # Average memory access latency per DRAM burst ((Tick/Count))
system.mem_ctrl.dram.readRowHits                 2408                       # Number of row buffer hits during reads (Count)
system.mem_ctrl.dram.writeRowHits                   0                       # Number of row buffer hits during writes (Count)
system.mem_ctrl.dram.readRowHitRate             75.63                       # Row buffer hit rate for reads (Ratio)
system.mem_ctrl.dram.writeRowHitRate              nan                       # Row buffer hit rate for writes (Ratio)
system.mem_ctrl.dram.bytesPerActivate::samples          774                       # Bytes accessed per row activation (Byte)
system.mem_ctrl.dram.bytesPerActivate::mean   262.780362                       # Bytes accessed per row activation (Byte)
system.mem_ctrl.dram.bytesPerActivate::gmean   161.096046                       # Bytes accessed per row activation (Byte)
system.mem_ctrl.dram.bytesPerActivate::stdev   290.856612                       # Bytes accessed per row activation (Byte)
system.mem_ctrl.dram.bytesPerActivate::0-127          306     39.53%     39.53% # Bytes accessed per row activation (Byte)
system.mem_ctrl.dram.bytesPerActivate::128-255          211     27.26%     66.80% # Bytes accessed per row activation (Byte)
system.mem_ctrl.dram.bytesPerActivate::256-383           86     11.11%     77.91% # Bytes accessed per row activation (Byte)
system.mem_ctrl.dram.bytesPerActivate::384-511           43      5.56%     83.46% # Bytes accessed per row activation (Byte)
system.mem_ctrl.dram.bytesPerActivate::512-639           19      2.45%     85.92% # Bytes accessed per row activation (Byte)
system.mem_ctrl.dram.bytesPerActivate::640-767           21      2.71%     88.63% # Bytes accessed per row activation (Byte)
system.mem_ctrl.dram.bytesPerActivate::768-895           18      2.33%     90.96% # Bytes accessed per row activation (Byte)
system.mem_ctrl.dram.bytesPerActivate::896-1023            9      1.16%     92.12% # Bytes accessed per row activation (Byte)
system.mem_ctrl.dram.bytesPerActivate::1024-1151           61      7.88%    100.00% # Bytes accessed per row activation (Byte)
system.mem_ctrl.dram.bytesPerActivate::total          774                       # Bytes accessed per row activation (Byte)
system.mem_ctrl.dram.dramBytesRead             203776                       # Total bytes read (Byte)
system.mem_ctrl.dram.dramBytesWritten               0                       # Total bytes written (Byte)
system.mem_ctrl.dram.avgRdBW                64.274864                       # Average DRAM read bandwidth in MiBytes/s ((Byte/Second))
system.mem_ctrl.dram.avgWrBW                        0                       # Average DRAM write bandwidth in MiBytes/s ((Byte/Second))
system.mem_ctrl.dram.peakBW                  12800.00                       # Theoretical peak bandwidth in MiByte/s ((Byte/Second))
system.mem_ctrl.dram.busUtil                     0.50                       # Data bus utilization in percentage (Ratio)
system.mem_ctrl.dram.busUtilRead                 0.50                       # Data bus utilization in percentage for reads (Ratio)
system.mem_ctrl.dram.busUtilWrite                0.00                       # Data bus utilization in percentage for writes (Ratio)
system.mem_ctrl.dram.pageHitRate                75.63                       # Row buffer hit rate, read and write combined (Ratio)
system.mem_ctrl.dram.power_state.pwrStateResidencyTicks::UNDEFINED   3170384000                       # Cumulative time (in ticks) in various power states (Tick)
system.mem_ctrl.dram.rank0.actEnergy          3055920                       # Energy for activate commands per rank (pJ) (Joule)
system.mem_ctrl.dram.rank0.preEnergy          1624260                       # Energy for precharge commands per rank (pJ) (Joule)
system.mem_ctrl.dram.rank0.readEnergy        11045580                       # Energy for read commands per rank (pJ) (Joule)
system.mem_ctrl.dram.rank0.writeEnergy              0                       # Energy for write commands per rank (pJ) (Joule)
system.mem_ctrl.dram.rank0.refreshEnergy 250158480.000000                       # Energy for refresh commands per rank (pJ) (Joule)
system.mem_ctrl.dram.rank0.actBackEnergy    296476380                       # Energy for active background per rank (pJ) (Joule)
system.mem_ctrl.dram.rank0.preBackEnergy    967763520                       # Energy for precharge background per rank (pJ) (Joule)
system.mem_ctrl.dram.rank0.actPowerDownEnergy            0                       # Energy for active power-down per rank (pJ) (Joule)
system.mem_ctrl.dram.rank0.prePowerDownEnergy            0                       # Energy for precharge power-down per rank (pJ) (Joule)
system.mem_ctrl.dram.rank0.selfRefreshEnergy            0                       # Energy for self refresh per rank (pJ) (Joule)
system.mem_ctrl.dram.rank0.totalEnergy     1530124140                       # Total energy per rank (pJ) (Joule)
system.mem_ctrl.dram.rank0.averagePower    482.630539                       # Core power per rank (mW) (Watt)
system.mem_ctrl.dram.rank0.totalIdleTime            0                       # Total Idle time Per DRAM Rank (Tick)
system.mem_ctrl.dram.rank0.pwrStateTime::IDLE   2513055500                       # Time in different power states (Tick)
system.mem_ctrl.dram.rank0.pwrStateTime::REF    105820000                       # Time in different power states (Tick)
system.mem_ctrl.dram.rank0.pwrStateTime::SREF            0                       # Time in different power states (Tick)
system.mem_ctrl.dram.rank0.pwrStateTime::PRE_PDN            0                       # Time in different power states (Tick)
system.mem_ctrl.dram.rank0.pwrStateTime::ACT    551508500                       # Time in different power states (Tick)
system.mem_ctrl.dram.rank0.pwrStateTime::ACT_PDN            0                       # Time in different power states (Tick)
system.mem_ctrl.dram.rank1.actEnergy          2484720                       # Energy for activate commands per rank (pJ) (Joule)
system.mem_ctrl.dram.rank1.preEnergy          1313070                       # Energy for precharge commands per rank (pJ) (Joule)
system.mem_ctrl.dram.rank1.readEnergy        11688180                       # Energy for read commands per rank (pJ) (Joule)
system.mem_ctrl.dram.rank1.writeEnergy              0                       # Energy for write commands per rank (pJ) (Joule)
system.mem_ctrl.dram.rank1.refreshEnergy 250158480.000000                       # Energy for refresh commands per rank (pJ) (Joule)
system.mem_ctrl.dram.rank1.actBackEnergy    249765450                       # Energy for active background per rank (pJ) (Joule)
system.mem_ctrl.dram.rank1.preBackEnergy   1007099040                       # Energy for precharge background per rank (pJ) (Joule)
system.mem_ctrl.dram.rank1.actPowerDownEnergy            0                       # Energy for active power-down per rank (pJ) (Joule)
system.mem_ctrl.dram.rank1.prePowerDownEnergy            0                       # Energy for precharge power-down per rank (pJ) (Joule)
system.mem_ctrl.dram.rank1.selfRefreshEnergy            0                       # Energy for self refresh per rank (pJ) (Joule)
system.mem_ctrl.dram.rank1.totalEnergy     1522508940                       # Total energy per rank (pJ) (Joule)
system.mem_ctrl.dram.rank1.averagePower    480.228559                       # Core power per rank (mW) (Watt)
system.mem_ctrl.dram.rank1.totalIdleTime            0                       # Total Idle time Per DRAM Rank (Tick)
system.mem_ctrl.dram.rank1.pwrStateTime::IDLE   2615884000                       # Time in different power states (Tick)
system.mem_ctrl.dram.rank1.pwrStateTime::REF    105820000                       # Time in different power states (Tick)
system.mem_ctrl.dram.rank1.pwrStateTime::SREF            0                       # Time in different power states (Tick)
system.mem_ctrl.dram.rank1.pwrStateTime::PRE_PDN            0                       # Time in different power states (Tick)
system.mem_ctrl.dram.rank1.pwrStateTime::ACT    448680000                       # Time in different power states (Tick)
system.mem_ctrl.dram.rank1.pwrStateTime::ACT_PDN            0                       # Time in different power states (Tick)
system.mem_ctrl.power_state.pwrStateResidencyTicks::UNDEFINED   3170384000                       # Cumulative time (in ticks) in various power states (Tick)
system.membus.transDist::ReadResp                2573                       # Transaction distribution (Count)
system.membus.transDist::WritebackDirty            16                       # Transaction distribution (Count)
system.membus.transDist::CleanEvict                53                       # Transaction distribution (Count)
system.membus.transDist::ReadExReq                622                       # Transaction distribution (Count)
system.membus.transDist::ReadExResp               622                       # Transaction distribution (Count)
system.membus.transDist::ReadSharedReq           2573                       # Transaction distribution (Count)
system.membus.pktCount_system.l2bus.mem_side_port[0]::system.mem_ctrl.port         6459                       # Packet count per connected requestor and responder (Count)
system.membus.pktCount_system.l2bus.mem_side_port[0]::total         6459                       # Packet count per connected requestor and responder (Count)
system.membus.pktCount::total                    6459                       # Packet count per connected requestor and responder (Count)
system.membus.pktSize_system.l2bus.mem_side_port[0]::system.mem_ctrl.port       205504                       # Cumulative packet size per connected requestor and responder (Byte)
system.membus.pktSize_system.l2bus.mem_side_port[0]::total       205504                       # Cumulative packet size per connected requestor and responder (Byte)
system.membus.pktSize::total                   205504                       # Cumulative packet size per connected requestor and responder (Byte)
system.membus.snoops                                0                       # Total snoops (Count)
system.membus.snoopTraffic                          0                       # Total snoop traffic (Byte)
system.membus.snoopFanout::samples               3195                       # Request fanout histogram (Count)
system.membus.snoopFanout::mean                     0                       # Request fanout histogram (Count)
system.membus.snoopFanout::stdev                    0                       # Request fanout histogram (Count)
system.membus.snoopFanout::underflows               0      0.00%      0.00% # Request fanout histogram (Count)
system.membus.snoopFanout::0                     3195    100.00%    100.00% # Request fanout histogram (Count)
system.membus.snoopFanout::1                        0      0.00%    100.00% # Request fanout histogram (Count)
system.membus.snoopFanout::2                        0      0.00%    100.00% # Request fanout histogram (Count)
system.membus.snoopFanout::3                        0      0.00%    100.00% # Request fanout histogram (Count)
system.membus.snoopFanout::overflows                0      0.00%    100.00% # Request fanout histogram (Count)
system.membus.snoopFanout::min_value                0                       # Request fanout histogram (Count)
system.membus.snoopFanout::max_value                0                       # Request fanout histogram (Count)
system.membus.snoopFanout::total                 3195                       # Request fanout histogram (Count)
system.membus.power_state.pwrStateResidencyTicks::UNDEFINED   3170384000                       # Cumulative time (in ticks) in various power states (Tick)
system.membus.reqLayer0.occupancy             3296000                       # Layer occupancy (ticks) (Tick)
system.membus.reqLayer0.utilization               0.0                       # Layer utilization (Ratio)
system.membus.respLayer0.occupancy            7418500                       # Layer occupancy (ticks) (Tick)
system.membus.respLayer0.utilization              0.0                       # Layer utilization (Ratio)
system.membus.snoop_filter.totRequests           3264                       # Total number of requests made to the snoop filter. (Count)
system.membus.snoop_filter.hitSingleRequests           69                       # Number of requests hitting in the snoop filter with a single holder of the requested data. (Count)
system.membus.snoop_filter.hitMultiRequests            0                       # Number of requests hitting in the snoop filter with multiple (>1) holders of the requested data. (Count)
system.membus.snoop_filter.totSnoops                0                       # Total number of snoops made to the snoop filter. (Count)
system.membus.snoop_filter.hitSingleSnoops            0                       # Number of snoops hitting in the snoop filter with a single holder of the requested data. (Count)
system.membus.snoop_filter.hitMultiSnoops            0                       # Number of snoops hitting in the snoop filter with multiple (>1) holders of the requested data. (Count)
system.photonic_accel_clk_domain.clock            333                       # Clock period in ticks (Tick)
system.photonic_accel_clk_domain.voltage_domain.voltage            1                       # Voltage in Volts (Volt)
system.photonic_accelnew.power_state.pwrStateResidencyTicks::UNDEFINED   3170384000                       # Cumulative time (in ticks) in various power states (Tick)
system.workload.inst.arm                            0                       # number of arm instructions executed (Count)
system.workload.inst.quiesce                        0                       # number of quiesce instructions executed (Count)

---------- End Simulation Statistics   ----------
